Version 4
SHEET 1 1172 800
WIRE 336 32 304 32
WIRE 880 32 832 32
WIRE 304 48 304 32
WIRE 512 80 -256 80
WIRE 880 80 832 80
WIRE 432 112 384 112
WIRE -256 128 -256 80
WIRE 880 128 832 128
WIRE 560 192 560 144
WIRE 576 192 560 192
WIRE 656 192 656 144
WIRE -656 224 -720 224
WIRE -720 256 -720 224
WIRE 384 288 384 112
WIRE 1088 288 976 288
WIRE -656 304 -656 224
WIRE -624 304 -656 304
WIRE -256 304 -256 208
WIRE -224 304 -256 304
WIRE 624 304 528 304
WIRE 1088 304 1088 288
WIRE 224 320 160 320
WIRE 624 336 528 336
WIRE -720 352 -720 336
WIRE -720 352 -768 352
WIRE -624 352 -720 352
WIRE -224 352 -304 352
WIRE 976 352 976 288
WIRE 976 352 928 352
WIRE -720 368 -720 352
WIRE 624 368 528 368
WIRE 224 384 160 384
WIRE 1008 384 928 384
WIRE -624 400 -656 400
WIRE 624 400 528 400
WIRE -224 416 -272 416
WIRE 976 416 928 416
WIRE 624 432 528 432
WIRE 224 448 160 448
WIRE -224 464 -240 464
WIRE 624 464 528 464
WIRE -720 480 -720 448
WIRE -656 480 -656 400
WIRE -656 480 -720 480
WIRE 976 480 976 416
WIRE 1088 480 1088 464
WIRE 1088 480 976 480
WIRE -240 528 -240 464
WIRE -176 528 -240 528
WIRE -528 560 -560 560
WIRE -432 560 -432 416
WIRE -432 560 -448 560
WIRE -416 560 -432 560
WIRE -320 560 -320 416
WIRE -320 560 -336 560
WIRE -272 560 -272 416
WIRE -176 560 -176 528
WIRE -176 560 -192 560
FLAG -768 352 0
FLAG -720 224 Vcc
FLAG -720 480 Vee
FLAG 880 32 Vcc
FLAG 880 128 Vee
FLAG 880 80 0
FLAG -560 560 0
FLAG 432 112 0
FLAG 336 32 Vee
SYMBOL Wien_Bridge_Oscilator -480 352 R0
SYMATTR InstName X1
SYMBOL Triangle_Wave_Generator 672 80 R0
SYMATTR InstName X2
SYMBOL H_Bridge_Driver 784 384 R0
SYMATTR InstName X3
SYMBOL PWM_Generator 0 384 R0
SYMATTR InstName X4
SYMBOL Simple_Motor 1088 384 R0
SYMATTR InstName X5
SYMBOL Modulation_and_Inversion 384 384 R0
SYMATTR InstName X6
SYMBOL voltage -720 240 R0
WINDOW 0 24 16 Invisible 2
WINDOW 3 -42 53 Right 2
WINDOW 123 0 0 Left 2
WINDOW 39 0 0 Left 2
SYMATTR InstName V1
SYMATTR Value 9
SYMBOL voltage -720 352 R0
WINDOW 0 24 16 Invisible 2
WINDOW 3 -42 61 Right 2
WINDOW 123 0 0 Left 2
WINDOW 39 0 0 Left 2
SYMATTR InstName V2
SYMATTR Value 9
SYMBOL res 672 176 R90
WINDOW 0 0 56 Invisible 2
WINDOW 3 32 56 VTop 2
SYMATTR InstName R1
SYMATTR Value {Ra}
SYMBOL res -320 544 R90
WINDOW 0 0 56 Invisible 2
WINDOW 3 32 56 VTop 2
SYMATTR InstName R2
SYMATTR Value {Rs}
SYMBOL res -432 544 R90
WINDOW 0 0 56 Invisible 2
WINDOW 3 32 56 VTop 2
SYMATTR InstName R3
SYMATTR Value {Rs}
SYMBOL res -176 544 R90
WINDOW 0 0 56 Invisible 2
WINDOW 3 32 56 VTop 2
SYMATTR InstName R4
SYMATTR Value {Rs}
SYMBOL res -272 112 R0
WINDOW 0 36 40 Invisible 2
SYMATTR InstName R5
SYMATTR Value {Rd}
TEXT -376 624 Center 2 ;Triple Gang Pot Resistor\nFrequency Adjustment
TEXT -184 152 Left 2 ;Delay Setpoint Adjust POT
TEXT 680 208 Left 2 ;PWM amplitude Adjustment POT
TEXT 328 -72 Center 2 ;Mode Switch\n(AC State)
TEXT 40 -224 Left 3 ;AC Motor SPWM Configuration
TEXT 356 662 Left 2 !.tran 0 10 0 startup
RECTANGLE Normal -144 688 -608 512 2
RECTANGLE Normal 128 224 -304 112 2
RECTANGLE Normal 1072 256 528 160 2
RECTANGLE Normal 464 224 208 -16 2
