Version 4
SHEET 1 880 680
WIRE 272 -48 -96 -48
WIRE 272 32 -96 32
WIRE 352 32 352 -48
WIRE 272 128 -96 128
WIRE 352 128 352 32
FLAG -96 -48 A
IOPIN -96 -48 BiDir
FLAG -96 32 B
IOPIN -96 32 BiDir
FLAG -96 128 C
IOPIN -96 128 BiDir
SYMBOL ind 368 -64 R90
WINDOW 0 5 56 Invisible 2
WINDOW 3 32 56 VTop 2
SYMATTR InstName L1
SYMATTR Value 1µH
SYMATTR SpiceLine Ipk=0.8 Rser=0.01
SYMBOL ind 368 16 R90
WINDOW 0 5 56 Invisible 2
WINDOW 3 32 56 VTop 2
SYMATTR InstName L2
SYMATTR Value 1µH
SYMATTR SpiceLine Ipk=0.8 Rser=0.01
SYMBOL ind 368 112 R90
WINDOW 0 5 56 Invisible 2
WINDOW 3 32 56 VTop 2
SYMATTR InstName L3
SYMATTR Value 1µH
SYMATTR SpiceLine Ipk=0.8 Rser=0.01
TEXT 120 -120 Left 2 ;Motor
TEXT -200 200 Left 2 ;Simplistic Model does not account for varriations in resistance and \nthe generation of back emf associated with the rotation of a real motor\n \nExists mainly for simulation test purposes
RECTANGLE Normal 368 -96 -48 176 2
